<?xml version="1.0" encoding="UTF-8"?>

<!-- generated on 2025-11-14 00:09:03 by Eclipse SUMO netconvert Version v1_24_0+0072-3625b8e2029
<netconvertConfiguration xmlns:xsi="http://www.w3.org/2001/XMLSchema-instance" xsi:noNamespaceSchemaLocation="http://sumo.dlr.de/xsd/netconvertConfiguration.xsd">

    <input>
        <osm-files value="map.osm"/>
    </input>

    <output>
        <output-file value="network.net.xml"/>
    </output>

    <projection>
        <proj.utm value="true"/>
    </projection>

</netconvertConfiguration>
-->

<net version="1.20" junctionCornerDetail="5" limitTurnSpeed="5.50" xmlns:xsi="http://www.w3.org/2001/XMLSchema-instance" xsi:noNamespaceSchemaLocation="http://sumo.dlr.de/xsd/net_file.xsd">

    <location netOffset="-674041.27,4077326.06" convBoundary="0.00,0.00,1491.86,1117.22" origBoundary="-73.048700,-36.825708,-73.032034,-36.815479" projParameter="+proj=utm +zone=18 +ellps=WGS84 +datum=WGS84 +units=m +no_defs"/>

    <type id="highway.busway" priority="1" numLanes="1" speed="27.78" allow="bus" oneway="1"/>
    <type id="highway.cycleway" priority="1" numLanes="1" speed="5.56" allow="bicycle" oneway="0" width="2.00"/>
    <type id="highway.footway" priority="1" numLanes="1" speed="2.78" allow="pedestrian" oneway="1" width="2.00"/>
    <type id="highway.living_street" priority="2" numLanes="1" speed="2.78" disallow="tram rail_urban rail rail_electric rail_fast ship container cable_car subway aircraft wheelchair scooter drone" oneway="0"/>
    <type id="highway.primary" priority="12" numLanes="2" speed="27.78" disallow="tram rail_urban rail rail_electric rail_fast ship container cable_car subway aircraft wheelchair scooter drone" oneway="0"/>
    <type id="highway.primary_link" priority="7" numLanes="1" speed="22.22" disallow="tram rail_urban rail rail_electric rail_fast ship container cable_car subway aircraft wheelchair scooter drone" oneway="0"/>
    <type id="highway.residential" priority="3" numLanes="1" speed="13.89" disallow="tram rail_urban rail rail_electric rail_fast ship container cable_car subway aircraft wheelchair scooter drone" oneway="0"/>
    <type id="highway.secondary" priority="11" numLanes="1" speed="27.78" disallow="tram rail_urban rail rail_electric rail_fast ship container cable_car subway aircraft wheelchair scooter drone" oneway="0"/>
    <type id="highway.service" priority="1" numLanes="1" speed="5.56" allow="pedestrian delivery bicycle" oneway="0"/>
    <type id="highway.tertiary" priority="10" numLanes="1" speed="22.22" disallow="tram rail_urban rail rail_electric rail_fast ship container cable_car subway aircraft wheelchair scooter drone" oneway="0"/>

    <edge id=":10028783900_0" function="internal">
        <lane id=":10028783900_0_0" index="0" disallow="tram rail_urban rail rail_electric rail_fast ship container cable_car subway aircraft wheelchair scooter drone" speed="13.89" length="0.10" shape="347.23,1020.14 347.23,1020.14"/>
        <lane id=":10028783900_0_1" index="1" disallow="tram rail_urban rail rail_electric rail_fast ship container cable_car subway aircraft wheelchair scooter drone" speed="13.89" length="0.10" shape="344.34,1018.78 344.34,1018.78"/>
    </edge>
    <edge id=":10270811404_0" function="internal">
        <lane id=":10270811404_0_0" index="0" disallow="tram rail_urban rail rail_electric rail_fast ship container cable_car subway aircraft wheelchair scooter drone" speed="8.33" length="0.30" shape="265.76,584.02 265.63,584.29"/>
    </edge>
    <edge id=":10270811404_1" function="internal">
        <lane id=":10270811404_1_0" index="0" disallow="tram rail_urban rail rail_electric rail_fast ship container cable_car subway aircraft wheelchair scooter drone" speed="8.33" length="0.30" shape="262.76,582.87 262.89,582.60"/>
    </edge>
    <edge id=":10270811405_0" function="internal">
        <lane id=":10270811405_0_0" index="0" allow="bicycle" speed="6.95" length="6.92" width="2.00" shape="273.02,574.80 271.47,576.16 270.38,577.09 269.47,578.15 268.47,579.91"/>
    </edge>
    <edge id=":10270811405_1" function="internal">
        <lane id=":10270811405_1_0" index="0" allow="bicycle" speed="6.55" length="4.16" width="2.00" shape="273.02,574.80 269.85,577.51"/>
    </edge>
    <edge id=":10270811405_2" function="internal">
        <lane id=":10270811405_2_0" index="0" allow="bicycle" speed="2.89" length="1.46" width="2.00" shape="273.02,574.80 272.13,574.95 271.60,574.76"/>
    </edge>
    <edge id=":10270811405_7" function="internal">
        <lane id=":10270811405_7_0" index="0" allow="bicycle" speed="6.55" length="14.29" width="2.00" shape="269.85,577.51 267.76,579.30 265.06,580.38 264.93,578.03 267.36,572.25"/>
    </edge>
    <edge id=":10270811405_8" function="internal">
        <lane id=":10270811405_8_0" index="0" allow="bicycle" speed="2.89" length="1.46" width="2.00" shape="271.60,574.76 271.44,574.23 271.64,573.35"/>
    </edge>
    <edge id=":10270811405_3" function="internal">
        <lane id=":10270811405_3_0" index="0" allow="bicycle" speed="6.95" length="0.92" width="2.00" shape="271.30,574.20 271.64,573.35"/>
    </edge>
    <edge id=":10270811405_4" function="internal">
        <lane id=":10270811405_4_0" index="0" disallow="tram rail_urban rail rail_electric rail_fast ship container cable_car subway aircraft wheelchair scooter drone" speed="8.33" length="6.37" shape="270.76,573.94 267.93,579.65"/>
    </edge>
    <edge id=":10270811405_5" function="internal">
        <lane id=":10270811405_5_0" index="0" disallow="tram rail_urban rail rail_electric rail_fast ship container cable_car subway aircraft wheelchair scooter drone" speed="8.33" length="6.37" shape="265.07,578.22 267.89,572.52"/>
    </edge>
    <edge id=":10270811405_6" function="internal">
        <lane id=":10270811405_6_0" index="0" allow="bicycle" speed="6.95" length="8.07" width="2.00" shape="265.60,578.49 266.89,576.57 268.20,575.61 269.73,574.80 271.64,573.35"/>
    </edge>
    <edge id=":10270811407_0" function="internal">
        <lane id=":10270811407_0_0" index="0" disallow="tram rail_urban rail rail_electric rail_fast ship container cable_car subway aircraft wheelchair scooter drone" speed="13.89" length="0.10" shape="274.43,578.52 274.44,578.53"/>
        <lane id=":10270811407_0_1" index="1" disallow="tram rail_urban rail rail_electric rail_fast ship container cable_car subway aircraft wheelchair scooter drone" speed="13.89" length="0.10" shape="275.87,575.66 275.87,575.67"/>
        <lane id=":10270811407_0_2" index="2" disallow="tram rail_urban rail rail_electric rail_fast ship container cable_car subway aircraft wheelchair scooter drone" speed="13.89" length="0.10" shape="277.31,572.80 277.31,572.80"/>
    </edge>
    <edge id=":10270811408_0" function="internal">
        <lane id=":10270811408_0_0" index="0" disallow="tram rail_urban rail rail_electric rail_fast ship container cable_car subway aircraft wheelchair scooter drone" speed="13.89" length="1.96" shape="268.41,553.29 270.19,554.19"/>
        <lane id=":10270811408_0_1" index="1" disallow="tram rail_urban rail rail_electric rail_fast ship container cable_car subway aircraft wheelchair scooter drone" speed="13.89" length="1.96" shape="266.99,556.16 268.74,557.05"/>
        <lane id=":10270811408_0_2" index="2" disallow="tram rail_urban rail rail_electric rail_fast ship container cable_car subway aircraft wheelchair scooter drone" speed="13.89" length="1.96" shape="265.57,559.03 267.30,559.90"/>
    </edge>
    <edge id=":10270829921_0" function="internal">
        <lane id=":10270829921_0_0" index="0" disallow="tram rail_urban rail rail_electric rail_fast ship container cable_car subway aircraft wheelchair scooter drone" speed="11.11" length="0.30" shape="611.00,750.32 611.13,750.05"/>
        <lane id=":10270829921_0_1" index="1" disallow="tram rail_urban rail rail_electric rail_fast ship container cable_car subway aircraft wheelchair scooter drone" speed="11.11" length="0.30" shape="613.89,751.70 614.02,751.43"/>
    </edge>
    <edge id=":10270829922_0" function="internal">
        <lane id=":10270829922_0_0" index="0" disallow="tram rail_urban rail rail_electric rail_fast ship container cable_car subway aircraft wheelchair scooter drone" speed="13.89" length="3.84" shape="624.29,723.33 626.02,719.91"/>
        <lane id=":10270829922_0_1" index="1" disallow="tram rail_urban rail rail_electric rail_fast ship container cable_car subway aircraft wheelchair scooter drone" speed="13.89" length="3.84" shape="627.14,724.78 628.88,721.35"/>
    </edge>
    <edge id=":10270829923_0" function="internal">
        <lane id=":10270829923_0_0" index="0" disallow="tram rail_urban rail rail_electric rail_fast ship container cable_car subway aircraft wheelchair scooter drone" speed="13.89" length="3.29" shape="513.84,666.08 512.43,669.06"/>
        <lane id=":10270829923_0_1" index="1" disallow="tram rail_urban rail rail_electric rail_fast ship container cable_car subway aircraft wheelchair scooter drone" speed="13.89" length="3.29" shape="510.95,664.71 509.54,667.68"/>
    </edge>
    <edge id=":10270829924_0" function="internal">
        <lane id=":10270829924_0_0" index="0" disallow="tram rail_urban rail rail_electric rail_fast ship container cable_car subway aircraft wheelchair scooter drone" speed="13.89" length="0.26" shape="499.90,695.23 499.80,695.46"/>
        <lane id=":10270829924_0_1" index="1" disallow="tram rail_urban rail rail_electric rail_fast ship container cable_car subway aircraft wheelchair scooter drone" speed="13.89" length="0.26" shape="497.01,693.87 496.90,694.10"/>
    </edge>
    <edge id=":11113332590_0" function="internal">
        <lane id=":11113332590_0_0" index="0" allow="bicycle" speed="5.43" length="4.39" width="2.00" shape="273.99,578.97 273.16,574.66"/>
    </edge>
    <edge id=":11113332590_1" function="internal">
        <lane id=":11113332590_1_0" index="0" disallow="tram rail_urban rail rail_electric rail_fast ship container cable_car subway aircraft wheelchair scooter drone" speed="13.89" length="4.16" shape="274.26,578.44 270.54,576.58"/>
        <lane id=":11113332590_1_1" index="1" disallow="tram rail_urban rail rail_electric rail_fast ship container cable_car subway aircraft wheelchair scooter drone" speed="13.89" length="4.16" shape="275.69,575.58 271.97,573.71"/>
        <lane id=":11113332590_1_2" index="2" disallow="tram rail_urban rail rail_electric rail_fast ship container cable_car subway aircraft wheelchair scooter drone" speed="13.89" length="4.16" shape="277.13,572.71 273.40,570.85"/>
    </edge>
    <edge id=":11113332590_4" function="internal">
        <lane id=":11113332590_4_0" index="0" allow="bicycle" speed="5.48" length="5.65" width="2.00" shape="277.39,572.18 275.89,571.23 274.95,570.18 274.58,569.04 274.79,567.80"/>
    </edge>
    <edge id=":11113332590_5" function="internal">
        <lane id=":11113332590_5_0" index="0" allow="bicycle" speed="5.56" length="6.81" width="2.00" shape="276.53,568.86 275.84,570.76 275.31,572.07 274.55,573.22 273.16,574.66"/>
    </edge>
    <edge id=":11113332590_6" function="internal">
        <lane id=":11113332590_6_0" index="0" allow="bicycle" speed="4.65" length="3.66" width="2.00" shape="276.53,568.86 275.81,570.35 275.00,571.26 274.27,571.55"/>
    </edge>
    <edge id=":11113332590_7" function="internal">
        <lane id=":11113332590_7_0" index="0" allow="bicycle" speed="2.90" length="0.92" width="2.00" shape="276.53,568.86 275.70,569.24"/>
    </edge>
    <edge id=":11113332590_11" function="internal">
        <lane id=":11113332590_11_0" index="0" allow="bicycle" speed="4.65" length="1.17" width="2.00" shape="274.27,571.55 274.11,571.61 273.14,571.39"/>
    </edge>
    <edge id=":11113332590_12" function="internal">
        <lane id=":11113332590_12_0" index="0" allow="bicycle" speed="2.90" length="2.05" width="2.00" shape="275.70,569.24 275.13,569.19 274.83,568.71 274.79,567.80"/>
    </edge>
    <edge id=":11113332590_8" function="internal">
        <lane id=":11113332590_8_0" index="0" allow="bicycle" speed="4.08" length="4.18" width="2.00" shape="271.79,573.21 270.28,577.11"/>
    </edge>
    <edge id=":11113332590_9" function="internal">
        <lane id=":11113332590_9_0" index="0" allow="bicycle" speed="5.56" length="6.29" width="2.00" shape="271.79,573.21 273.05,571.87 273.72,570.79 274.17,569.56 274.79,567.80"/>
    </edge>
    <edge id=":11113332590_10" function="internal">
        <lane id=":11113332590_10_0" index="0" allow="bicycle" speed="2.89" length="1.19" width="2.00" shape="271.79,573.21 272.67,573.06 272.95,573.16"/>
    </edge>
    <edge id=":11113332590_13" function="internal">
        <lane id=":11113332590_13_0" index="0" allow="bicycle" speed="2.89" length="1.73" width="2.00" shape="272.95,573.16 273.20,573.25 273.36,573.78 273.16,574.66"/>
    </edge>
    <edge id=":11113332592_0" function="internal">
        <lane id=":11113332592_0_0" index="0" allow="bicycle" speed="2.62" length="1.19" width="2.00" shape="281.02,560.23 281.03,559.04"/>
    </edge>
    <edge id=":11113332592_1" function="internal">
        <lane id=":11113332592_1_0" index="0" allow="bicycle" speed="5.56" length="9.24" width="2.00" shape="281.02,560.23 279.27,562.30 278.33,563.92 277.66,565.71 276.74,568.30"/>
    </edge>
    <edge id=":11113332592_2" function="internal">
        <lane id=":11113332592_2_0" index="0" allow="bicycle" speed="2.89" length="1.19" width="2.00" shape="281.02,560.23 280.14,560.44 279.86,560.35"/>
    </edge>
    <edge id=":11113332592_11" function="internal">
        <lane id=":11113332592_11_0" index="0" allow="bicycle" speed="2.89" length="1.73" width="2.00" shape="279.86,560.35 279.61,560.28 279.41,559.75 279.56,558.86"/>
    </edge>
    <edge id=":11113332592_3" function="internal">
        <lane id=":11113332592_3_0" index="0" allow="bicycle" speed="4.49" length="2.95" width="2.00" shape="277.20,557.09 279.56,558.86"/>
    </edge>
    <edge id=":11113332592_4" function="internal">
        <lane id=":11113332592_4_0" index="0" disallow="tram rail_urban rail rail_electric rail_fast ship container cable_car subway aircraft wheelchair scooter drone" speed="13.89" length="4.30" shape="276.93,557.62 280.76,559.57"/>
        <lane id=":11113332592_4_1" index="1" disallow="tram rail_urban rail rail_electric rail_fast ship container cable_car subway aircraft wheelchair scooter drone" speed="13.89" length="4.30" shape="275.48,560.47 279.31,562.43"/>
        <lane id=":11113332592_4_2" index="2" disallow="tram rail_urban rail rail_electric rail_fast ship container cable_car subway aircraft wheelchair scooter drone" speed="13.89" length="4.30" shape="274.02,563.32 277.86,565.28"/>
    </edge>
    <edge id=":11113332592_7" function="internal">
        <lane id=":11113332592_7_0" index="0" allow="bicycle" speed="5.59" length="5.89" width="2.00" shape="273.75,563.86 275.41,564.89 276.46,565.97 276.91,567.11 276.74,568.30"/>
    </edge>
    <edge id=":11113332592_8" function="internal">
        <lane id=":11113332592_8_0" index="0" allow="bicycle" speed="5.56" length="10.01" width="2.00" shape="274.88,567.58 275.88,564.78 276.62,562.85 277.65,561.10 279.56,558.86"/>
    </edge>
    <edge id=":11113332592_9" function="internal">
        <lane id=":11113332592_9_0" index="0" allow="bicycle" speed="4.66" length="3.75" width="2.00" shape="274.88,567.58 275.62,566.00 276.41,564.99 277.06,564.67"/>
    </edge>
    <edge id=":11113332592_10" function="internal">
        <lane id=":11113332592_10_0" index="0" allow="bicycle" speed="2.89" length="1.23" width="2.00" shape="274.88,567.58 275.61,567.06 275.94,567.03"/>
    </edge>
    <edge id=":11113332592_12" function="internal">
        <lane id=":11113332592_12_0" index="0" allow="bicycle" speed="4.66" length="1.11" width="2.00" shape="277.06,564.67 277.25,564.58 278.13,564.75"/>
    </edge>
    <edge id=":11113332592_13" function="internal">
        <lane id=":11113332592_13_0" index="0" allow="bicycle" speed="2.89" length="1.69" width="2.00" shape="275.94,567.03 276.17,567.01 276.54,567.42 276.74,568.30"/>
    </edge>
    <edge id=":11117886057_0" function="internal">
        <lane id=":11117886057_0_0" index="0" disallow="tram rail_urban rail rail_electric rail_fast ship container cable_car subway aircraft wheelchair scooter drone" speed="13.89" length="0.10" shape="549.88,6.42 549.88,6.42"/>
        <lane id=":11117886057_0_1" index="1" disallow="tram rail_urban rail rail_electric rail_fast ship container cable_car subway aircraft wheelchair scooter drone" speed="13.89" length="0.10" shape="547.00,5.04 547.00,5.04"/>
    </edge>
    <edge id=":11171066614_0" function="internal">
        <lane id=":11171066614_0_0" index="0" allow="pedestrian delivery bicycle" speed="5.16" length="5.14" shape="383.34,472.68 382.92,474.07 383.01,475.25 383.61,476.23 384.71,477.02"/>
    </edge>
    <edge id=":11171066614_1" function="internal">
        <lane id=":11171066614_1_0" index="0" allow="pedestrian delivery bicycle" speed="3.65" length="4.67" shape="383.34,472.68 382.12,473.44 381.23,473.47 380.66,472.78 380.43,471.35"/>
    </edge>
    <edge id=":11171066614_2" function="internal">
        <lane id=":11171066614_2_0" index="0" allow="pedestrian delivery bicycle" speed="5.00" length="5.04" shape="376.30,472.82 377.62,473.26 378.74,473.16 379.68,472.52 380.43,471.35"/>
    </edge>
    <edge id=":11171066614_3" function="internal">
        <lane id=":11171066614_3_0" index="0" disallow="tram rail_urban rail rail_electric rail_fast ship container cable_car subway aircraft wheelchair scooter drone" speed="13.89" length="9.40" shape="376.30,472.82 384.71,477.02"/>
        <lane id=":11171066614_3_1" index="1" disallow="tram rail_urban rail rail_electric rail_fast ship container cable_car subway aircraft wheelchair scooter drone" speed="13.89" length="9.40" shape="374.87,475.68 383.29,479.88"/>
        <lane id=":11171066614_3_2" index="2" disallow="tram rail_urban rail rail_electric rail_fast ship container cable_car subway aircraft wheelchair scooter drone" speed="13.89" length="9.40" shape="373.44,478.55 381.86,482.74"/>
    </edge>
    <edge id=":11171066615_0" function="internal">
        <lane id=":11171066615_0_0" index="0" allow="pedestrian delivery bicycle" speed="3.65" length="4.67" shape="396.47,436.09 397.69,435.33 398.59,435.29 399.15,435.99 399.38,437.41"/>
    </edge>
    <edge id=":11171066616_0" function="internal">
        <lane id=":11171066616_0_0" index="0" allow="pedestrian delivery bicycle" speed="5.12" length="5.09" shape="487.06,524.55 486.64,525.91 486.73,527.08 487.33,528.05 488.45,528.82"/>
    </edge>
    <edge id=":11171066616_1" function="internal">
        <lane id=":11171066616_1_0" index="0" allow="pedestrian delivery bicycle" speed="3.65" length="4.67" shape="487.06,524.55 485.83,525.30 484.93,525.33 484.38,524.63 484.16,523.20"/>
    </edge>
    <edge id=":11171066616_2" function="internal">
        <lane id=":11171066616_2_0" index="0" allow="pedestrian delivery bicycle" speed="5.02" length="5.03" shape="480.02,524.65 481.33,525.08 482.46,524.99 483.40,524.36 484.16,523.20"/>
    </edge>
    <edge id=":11171066616_3" function="internal">
        <lane id=":11171066616_3_0" index="0" disallow="tram rail_urban rail rail_electric rail_fast ship container cable_car subway aircraft wheelchair scooter drone" speed="13.89" length="9.41" shape="480.02,524.65 488.45,528.82"/>
        <lane id=":11171066616_3_1" index="1" disallow="tram rail_urban rail rail_electric rail_fast ship container cable_car subway aircraft wheelchair scooter drone" speed="13.89" length="9.41" shape="478.60,527.52 487.03,531.69"/>
        <lane id=":11171066616_3_2" index="2" disallow="tram rail_urban rail rail_electric rail_fast ship container cable_car subway aircraft wheelchair scooter drone" speed="13.89" length="9.41" shape="477.18,530.39 485.61,534.56"/>
    </edge>
    <edge id=":11171066617_0" function="internal">
        <lane id=":11171066617_0_0" index="0" allow="pedestrian delivery bicycle" speed="3.65" length="4.67" shape="507.00,474.21 508.23,473.46 509.12,473.44 509.68,474.14 509.90,475.57"/>
    </edge>
    <edge id=":11171066618_0" function="internal">
        <lane id=":11171066618_0_0" index="0" disallow="tram rail_urban rail rail_electric rail_fast ship container cable_car subway aircraft wheelchair scooter drone" speed="13.89" length="6.61" shape="610.89,589.70 616.80,592.64"/>
        <lane id=":11171066618_0_1" index="1" disallow="tram rail_urban rail rail_electric rail_fast ship container cable_car subway aircraft wheelchair scooter drone" speed="13.89" length="6.61" shape="609.46,592.57 615.38,595.51"/>
        <lane id=":11171066618_0_2" index="2" disallow="tram rail_urban rail rail_electric rail_fast ship container cable_car subway aircraft wheelchair scooter drone" speed="13.89" length="6.61" shape="608.03,595.43 613.96,598.38"/>
    </edge>
    <edge id=":11171066618_3" function="internal">
        <lane id=":11171066618_3_0" index="0" allow="pedestrian delivery bicycle" speed="5.18" length="5.35" shape="608.03,595.43 609.32,596.29 610.05,597.30 610.20,598.47 609.79,599.78"/>
    </edge>
    <edge id=":11171066618_4" function="internal">
        <lane id=":11171066618_4_0" index="0" allow="pedestrian delivery bicycle" speed="6.87" length="10.16" shape="606.93,598.35 608.52,596.06 610.45,594.82 612.74,594.64 615.38,595.51"/>
        <lane id=":11171066618_4_1" index="1" allow="pedestrian delivery bicycle" speed="6.09" length="7.76" shape="606.93,598.35 607.89,597.31 609.38,596.97 611.40,597.32 613.96,598.38"/>
    </edge>
    <edge id=":11171066618_6" function="internal">
        <lane id=":11171066618_6_0" index="0" allow="pedestrian delivery bicycle" speed="3.65" length="4.67" shape="606.93,598.35 608.18,597.63 609.08,597.63 609.61,598.35 609.79,599.78"/>
    </edge>
    <edge id=":11171066619_0" function="internal">
        <lane id=":11171066619_0_0" index="0" allow="pedestrian delivery bicycle" speed="3.65" length="4.67" shape="587.64,643.94 586.39,644.65 585.49,644.65 584.96,643.93 584.78,642.50"/>
    </edge>
    <edge id=":11171066635_0" function="internal">
        <lane id=":11171066635_0_0" index="0" allow="pedestrian delivery bicycle" speed="4.31" length="3.37" shape="611.81,586.68 611.33,587.46 610.76,588.32 610.44,589.09 610.71,589.61"/>
    </edge>
    <edge id=":11171066635_1" function="internal">
        <lane id=":11171066635_1_0" index="0" allow="pedestrian delivery bicycle" speed="3.65" length="4.67" shape="611.81,586.68 610.56,587.40 609.67,587.41 609.13,586.69 608.95,585.26"/>
    </edge>
    <edge id=":11171066635_2" function="internal">
        <lane id=":11171066635_2_0" index="0" allow="pedestrian delivery bicycle" speed="5.04" length="5.00" shape="604.79,586.65 606.09,587.08 607.22,587.00 608.17,586.39 608.95,585.26"/>
    </edge>
    <edge id=":11171066635_3" function="internal">
        <lane id=":11171066635_3_0" index="0" disallow="tram rail_urban rail rail_electric rail_fast ship container cable_car subway aircraft wheelchair scooter drone" speed="13.89" length="6.63" shape="604.79,586.65 610.71,589.61"/>
        <lane id=":11171066635_3_1" index="1" disallow="tram rail_urban rail rail_electric rail_fast ship container cable_car subway aircraft wheelchair scooter drone" speed="13.89" length="6.63" shape="603.35,589.51 609.28,592.48"/>
        <lane id=":11171066635_3_2" index="2" disallow="tram rail_urban rail rail_electric rail_fast ship container cable_car subway aircraft wheelchair scooter drone" speed="13.89" length="6.63" shape="601.92,592.37 607.85,595.34"/>
    </edge>
    <edge id=":11171066636_0" function="internal">
        <lane id=":11171066636_0_0" index="0" allow="pedestrian delivery bicycle" speed="3.65" length="4.67" shape="631.60,539.68 632.85,538.96 633.75,538.96 634.28,539.67 634.47,541.10"/>
    </edge>
    <edge id=":12067204760_0" function="internal">
        <lane id=":12067204760_0_0" index="0" disallow="tram rail_urban rail rail_electric rail_fast ship container cable_car subway aircraft wheelchair scooter drone" speed="13.89" length="4.80" shape="424.05,583.52 422.04,587.87"/>
        <lane id=":12067204760_0_1" index="1" disallow="tram rail_urban rail rail_electric rail_fast ship container cable_car subway aircraft wheelchair scooter drone" speed="13.89" length="4.80" shape="421.15,582.17 419.14,586.53"/>
        <lane id=":12067204760_0_2" index="2" disallow="tram rail_urban rail rail_electric rail_fast ship container cable_car subway aircraft wheelchair scooter drone" speed="13.89" length="4.80" shape="418.24,580.83 416.23,585.19"/>
    </edge>
    <edge id=":12067204761_0" function="internal">
        <lane id=":12067204761_0_0" index="0" disallow="tram rail_urban rail rail_electric rail_fast ship container cable_car subway aircraft wheelchair scooter drone" speed="13.89" length="5.17" shape="406.59,580.43 409.13,575.92"/>
        <lane id=":12067204761_0_1" index="1" disallow="tram rail_urban rail rail_electric rail_fast ship container cable_car subway aircraft wheelchair scooter drone" speed="13.89" length="5.17" shape="409.38,582.00 411.92,577.49"/>
        <lane id=":12067204761_0_2" index="2" disallow="tram rail_urban rail rail_electric rail_fast ship container cable_car subway aircraft wheelchair scooter drone" speed="13.89" length="5.17" shape="412.17,583.57 414.71,579.06"/>
    </edge>
    <edge id=":1291287709_0" function="internal">
        <lane id=":1291287709_0_0" index="0" disallow="tram rail_urban rail rail_electric rail_fast ship container cable_car subway aircraft wheelchair scooter drone" speed="13.89" length="18.32" shape="437.19,661.40 431.81,661.12 428.07,661.37 424.52,662.52 419.72,664.93"/>
        <lane id=":1291287709_0_1" index="1" disallow="tram rail_urban rail rail_electric rail_fast ship container cable_car subway aircraft wheelchair scooter drone" speed="13.89" length="18.32" shape="435.71,658.09 430.31,657.88 426.57,658.30 423.03,659.61 418.22,662.10"/>
        <lane id=":1291287709_0_2" index="2" disallow="tram rail_urban rail rail_electric rail_fast ship container cable_car subway aircraft wheelchair scooter drone" speed="13.89" length="18.32" shape="434.27,654.88 428.83,655.17 425.09,655.66 421.55,656.86 416.71,659.28"/>
    </edge>
    <edge id=":1291287709_3" function="internal">
        <lane id=":1291287709_3_0" index="0" disallow="tram rail_urban rail rail_electric rail_fast ship container cable_car subway aircraft wheelchair scooter drone" speed="16.67" length="18.47" shape="430.48,648.69 428.05,653.65 425.90,656.87 422.97,659.36 418.22,662.10"/>
        <lane id=":1291287709_3_1" index="1" disallow="tram rail_urban rail rail_electric rail_fast ship container cable_car subway aircraft wheelchair scooter drone" speed="16.44" length="18.47" shape="428.26,645.90 425.95,650.78 423.99,654.03 421.27,656.56 416.71,659.28"/>
    </edge>
    <edge id=":1291287718_0" function="internal">
        <lane id=":1291287718_0_0" index="0" disallow="tram rail_urban rail rail_electric rail_fast ship container cable_car subway aircraft wheelchair scooter drone" speed="13.89" length="15.02" shape="353.91,661.57 353.95,657.23 353.93,654.23 353.52,651.30 352.39,647.13"/>
        <lane id=":1291287718_0_1" index="1" disallow="tram rail_urban rail rail_electric rail_fast ship container cable_car subway aircraft wheelchair scooter drone" speed="13.89" length="15.02" shape="357.11,661.42 357.15,656.84 357.10,653.68 356.65,650.59 355.45,646.20"/>
    </edge>
    <edge id=":1291287718_2" function="internal">
        <lane id=":1291287718_2_0" index="0" disallow="tram rail_urban rail rail_electric rail_fast ship container cable_car subway aircraft wheelchair scooter drone" speed="13.89" length="13.82" shape="359.87,659.53 357.10,656.17 355.24,653.80 353.82,651.19 352.39,647.13"/>
        <lane id=":1291287718_2_1" index="1" disallow="tram rail_urban rail rail_electric rail_fast ship container cable_car subway aircraft wheelchair scooter drone" speed="13.89" length="13.82" shape="362.66,657.89 360.01,654.72 358.21,652.49 356.83,650.04 355.45,646.20"/>
        <lane id=":1291287718_2_2" index="2" disallow="tram rail_urban rail rail_electric rail_fast ship container cable_car subway aircraft wheelchair scooter drone" speed="13.89" length="13.82" shape="364.60,656.61 362.62,653.31 361.11,651.12 359.83,648.83 358.51,645.26"/>
    </edge>
    <edge id=":1291287726_0" function="internal">
        <lane id=":1291287726_0_0" index="0" disallow="tram rail_urban rail rail_electric rail_fast ship container cable_car subway aircraft wheelchair scooter drone" speed="7.61" length="10.04" shape="421.94,588.09 420.86,591.07 420.58,593.61 421.09,595.73 422.40,597.41"/>
        <lane id=":1291287726_0_1" index="1" disallow="tram rail_urban rail rail_electric rail_fast ship container cable_car subway aircraft wheelchair scooter drone" speed="8.98" length="14.30" shape="419.04,586.75 417.63,590.79 417.40,594.33 418.32,597.37 420.41,599.92"/>
    </edge>
    <edge id=":1291287726_2" function="internal">
        <lane id=":1291287726_2_0" index="0" disallow="tram rail_urban rail rail_electric rail_fast ship container cable_car subway aircraft wheelchair scooter drone" speed="13.89" length="19.70" shape="416.13,585.41 414.59,591.13 415.00,595.46 415.38,599.78 413.77,605.46"/>
        <lane id=":1291287726_2_1" index="1" disallow="tram rail_urban rail rail_electric rail_fast ship container cable_car subway aircraft wheelchair scooter drone" speed="13.89" length="19.70" shape="416.13,585.41 414.18,590.81 413.55,594.76 412.90,598.71 410.88,604.08"/>
        <lane id=":1291287726_2_2" index="2" disallow="tram rail_urban rail rail_electric rail_fast ship container cable_car subway aircraft wheelchair scooter drone" speed="13.89" length="19.70" shape="416.13,585.41 408.00,602.69"/>
    </edge>
    <edge id=":1291287726_5" function="internal">