<configuration>
    <input>
        <net-file value="network.net.xml"/>
        <route-files value="routes_with_ids.rou.xml"/>
    </input>
    <time>
        <begin value="0"/>
        <end value="500"/>
    </time>
</configuration>
